REMARK  Name = 1HNN_ligand
REMARK                            x       y       z     vdW  Elec       q    Type
REMARK                         _______ _______ _______ _____ _____    ______ ____
ROOT
ATOM      1  C   LIG    1       11.074  20.209  20.939  0.00  0.00    +0.000 A 
ATOM      2  C   LIG    1       12.084  20.263  19.988  0.00  0.00    +0.000 A 
ATOM      3  C   LIG    1       12.054  19.332  18.802  0.00  0.00    +0.000 C 
ATOM      4  C   LIG    1       12.758  19.972  17.618  0.00  0.00    +0.000 C 
ATOM      5  N   LIG    1       14.161  20.204  18.048  0.00  0.00    +0.000 N 
ATOM      6  H   LIG    1       14.702  20.534  17.262  0.00  0.00    +0.000 HD
ATOM      7  H   LIG    1       14.583  19.323  18.304  0.00  0.00    +0.000 HD
ATOM      8  C   LIG    1       14.296  21.160  19.174  0.00  0.00    +0.000 C 
ATOM      9  C   LIG    1       13.233  21.010  20.243  0.00  0.00    +0.000 A 
ATOM     10  C   LIG    1       13.356  21.694  21.442  0.00  0.00    +0.000 A 
ATOM     11  C   LIG    1       12.347  21.636  22.385  0.00  0.00    +0.000 A 
ATOM     12  C   LIG    1       11.203  20.895  22.140  0.00  0.00    +0.000 A 
ENDROOT
BRANCH  11  13
ATOM     13  S   LIG    1       12.513  22.500  23.905  0.00  0.00    +0.000 S 
ATOM     14  O   LIG    1       12.168  23.893  23.784  0.00  0.00    +0.000 OA
ATOM     15  O   LIG    1       11.695  21.900  24.932  0.00  0.00    +0.000 OA
BRANCH  13  16
ATOM     16  N   LIG    1       14.026  22.394  24.325  0.00  0.00    +0.000 NA
ATOM     17  H   LIG    1       14.679  21.893  23.739  0.00  0.00    +0.000 HD
ATOM     18  H   LIG    1       14.344  22.827  25.180  0.00  0.00    +0.000 HD
ENDBRANCH  13  16
ENDBRANCH  11  13
TORSDOF 2
